  
       XFOIL         Version 6.99
  
 Calculated polar for: Clark-YY                                        
  
 1 1 Reynolds number fixed          Mach number fixed         
  
 xtrf =   1.000 (top)        1.000 (bottom)  
 Mach =   0.000     Re =     1.652 e 6     Ncrit =   9.000
  
   alpha    CL        CD       CDp       CM     Top_Xtr  Bot_Xtr
  ------ -------- --------- --------- -------- -------- --------
  10.664   1.4019   0.01499   0.00916  -0.0505   0.0291   1.0000
